/*--------------------------------*- C++ -*----------------------------------*\
| =========                 |                                                 |
| \\      /  F ield         | OpenFOAM: The Open Source CFD Toolbox           |
|  \\    /   O peration     | Version:  2.1.0                                 |
|   \\  /    A nd           | Web:      www.OpenFOAM.org                      |
|    \\/     M anipulation  |                                                 |
\*---------------------------------------------------------------------------*/
FoamFile
{
    version     2.0;
    format      ascii;
    class       dictionary;
    location    "system";
    object      controlDict;
}
// * * * * * * * * * * * * * * * * * * * * * * * * * * * * * * * * * * * * * //
libs
(
"libLRT10canteraFoamModel_bwm.so"
"libLRT10optimizedChemistry_lu19.so"
)

application     rhoReactingFoam;

startFrom       startTime;

startTime       0;

stopAt          endTime;

endTime         0.02001;

deltaT          2e-7;

writeControl    adjustableRunTime;

writeInterval   1e-5;

purgeWrite      3;

writeFormat     ascii;

writePrecision  6;

writeCompression off;

timeFormat      general;

timePrecision   6;

runTimeModifiable true;

adjustTimeStep    yes;

maxCo           0.3;


functions
{

    preview
    {
            type surfaces;

            functionObjectLibs ("libsampling.so");
            writeControl timeStep;
            writeInterval 100;
            interpolationScheme cell;
            surfaceFormat raw;

            fields
            (
                f_Bilger T CO2 CO heatRelease CH4 H2O H2 OH
            );

            surfaces
            (

               scatter_xD010
               {
                  type            plane;
                  basePoint       (0.0075 0 0);
                  normalVector    (1 0 0);
               }

               scatter_xD050
               {
                  type            plane;
                  basePoint       (0.0375 0 0);
                  normalVector    (1 0 0);
               }

               scatter_xD100
               {  
                  type            plane;
                  basePoint       (0.075 0 0);
                  normalVector    (1 0 0);
               }

               scatter_xD120
               {
                  type            plane; 
                  basePoint       (0.09 0 0);
                  normalVector    (1 0 0);
               }

               scatter_xD150
               {
                  type            plane;  
                  basePoint       (0.1125 0 0);
                  normalVector    (1 0 0);
               }

               scatter_xD200
               {
                  type            plane;
                  basePoint       (0.15 0 0);
                  normalVector    (1 0 0);
               }

               scatter_xD300
               {
                  type            plane;
                  basePoint       (0.225 0 0);
                  normalVector    (1 0 0);
               }
            );
    }


    fieldAverage1
    {   
        type            fieldAverage;
        functionObjectLibs ( "libLRT10fieldFunctionObjects.so" );
        cleanRestart    false;
        writeControl   outputTime;
        fields
        (   
            U
            {   
                mean        on;
                prime2Mean  on;
                base        time;
            }

            rho
            {   
                mean        on;
                prime2Mean  off;
                base        time;
            }

            heatRelease
            {
                mean        on;
                prime2Mean  on;
                base        time;
            }

            T
            {   
                mean        on;
                prime2Mean  on;
                base        time;
            }

            f_Bilger
            {   
                mean        on;
                prime2Mean  on;
                base        time;
            }

            PV
            {   
                mean        on;
                prime2Mean  on;
                base        time;
            }

            PVs
            {   
                mean        on;
                prime2Mean  off;
                base        time;
            }

            O2
            {
                mean        on;
                prime2Mean  on;
                base        time;
            }
		/*
            N2
            {
                mean        on;
                prime2Mean  on;
                base        time;
            }*/

            CH4
            {
                mean        on;
                prime2Mean  on;
                base        time;
            }

            H2O
            {
                mean        on;
                prime2Mean  on;
                base        time;
            }

            CO2
            {
                mean        on;
                prime2Mean  on;
                base        time;
            }

            H2
            {
                mean        on;
                prime2Mean  on;
                base        time;
            }

            CO
            {
                mean        on;
                prime2Mean  on;
                base        time;
            }
         );
    }


probes
    {                          
        type            probes;
        libs ("libsampling.so");
        writeControl timeStep;        
        writeInterval 50;
        probeLocations         
        (                      
            (0.0075 0.0 0.0)
            (0.0075 0.00070588 0.0)
            (0.0075 0.00141176 0.0)
            (0.0075 0.00211765 0.0)
            (0.0075 0.00282353 0.0)
            (0.0075 0.00352941 0.0)
            (0.0075 0.00423529 0.0)
            (0.0075 0.00494118 0.0)
            (0.0075 0.00564706 0.0)
            (0.0075 0.00635294 0.0)
            (0.0075 0.00705882 0.0)
            (0.0075 0.00776471 0.0)
            (0.0075 0.00847059 0.0)
            (0.0075 0.00917647 0.0)
            (0.0075 0.00988235 0.0)
            (0.0075 0.01058824 0.0)
            (0.0075 0.01129412 0.0)
            (0.0075 0.012 0.0)
            (0.0075 0.0 0.0)
            (0.0075 0.00049913 0.00049913)
            (0.0075 0.00099827 0.00099827)
            (0.0075 0.0014974 0.0014974)
            (0.0075 0.00199654 0.00199654)
            (0.0075 0.00249567 0.00249567)
            (0.0075 0.00299481 0.00299481)
            (0.0075 0.00349394 0.00349394)
            (0.0075 0.00399307 0.00399307)
            (0.0075 0.00449221 0.00449221)
            (0.0075 0.00499134 0.00499134)
            (0.0075 0.00549048 0.00549048)
            (0.0075 0.00598961 0.00598961)
            (0.0075 0.00648874 0.00648874)
            (0.0075 0.00698788 0.00698788)
            (0.0075 0.00748701 0.00748701)
            (0.0075 0.00798615 0.00798615)
            (0.0075 0.00848528 0.00848528)
            (0.0075 0.0 0.0)
            (0.0075 0.0 0.00070588)
            (0.0075 0.0 0.00141176)
            (0.0075 0.0 0.00211765)
            (0.0075 0.0 0.00282353)
            (0.0075 0.0 0.00352941)
            (0.0075 0.0 0.00423529)
            (0.0075 0.0 0.00494118)
            (0.0075 0.0 0.00564706)
            (0.0075 0.0 0.00635294)
            (0.0075 0.0 0.00705882)
            (0.0075 0.0 0.00776471)
            (0.0075 0.0 0.00847059)
            (0.0075 0.0 0.00917647)
            (0.0075 0.0 0.00988235)
            (0.0075 0.0 0.01058824)
            (0.0075 0.0 0.01129412)
            (0.0075 0.0 0.012)
            (0.0075 0.0 0.0)
            (0.0075 -0.00049913 0.00049913)
            (0.0075 -0.00099827 0.00099827)
            (0.0075 -0.0014974 0.0014974)
            (0.0075 -0.00199654 0.00199654)
            (0.0075 -0.00249567 0.00249567)
            (0.0075 -0.00299481 0.00299481)
            (0.0075 -0.00349394 0.00349394)
            (0.0075 -0.00399307 0.00399307)
            (0.0075 -0.00449221 0.00449221)
            (0.0075 -0.00499134 0.00499134)
            (0.0075 -0.00549048 0.00549048)
            (0.0075 -0.00598961 0.00598961)
            (0.0075 -0.00648874 0.00648874)
            (0.0075 -0.00698788 0.00698788)
            (0.0075 -0.00748701 0.00748701)
            (0.0075 -0.00798615 0.00798615)
            (0.0075 -0.00848528 0.00848528)
            (0.0075 0.0 0.0)
            (0.0075 -0.00070588 0.0)
            (0.0075 -0.00141176 0.0)
            (0.0075 -0.00211765 0.0)
            (0.0075 -0.00282353 0.0)
            (0.0075 -0.00352941 0.0)
            (0.0075 -0.00423529 0.0)
            (0.0075 -0.00494118 0.0)
            (0.0075 -0.00564706 0.0)
            (0.0075 -0.00635294 0.0)
            (0.0075 -0.00705882 0.0)
            (0.0075 -0.00776471 0.0)
            (0.0075 -0.00847059 0.0)
            (0.0075 -0.00917647 0.0)
            (0.0075 -0.00988235 0.0)
            (0.0075 -0.01058824 0.0)
            (0.0075 -0.01129412 0.0)
            (0.0075 -0.012 0.0)
            (0.0075 0.0 0.0)
            (0.0075 -0.00049913 -0.00049913)
            (0.0075 -0.00099827 -0.00099827)
            (0.0075 -0.0014974 -0.0014974)
            (0.0075 -0.00199654 -0.00199654)
            (0.0075 -0.00249567 -0.00249567)
            (0.0075 -0.00299481 -0.00299481)
            (0.0075 -0.00349394 -0.00349394)
            (0.0075 -0.00399307 -0.00399307)
            (0.0075 -0.00449221 -0.00449221)
            (0.0075 -0.00499134 -0.00499134)
            (0.0075 -0.00549048 -0.00549048)
            (0.0075 -0.00598961 -0.00598961)
            (0.0075 -0.00648874 -0.00648874)
            (0.0075 -0.00698788 -0.00698788)
            (0.0075 -0.00748701 -0.00748701)
            (0.0075 -0.00798615 -0.00798615)
            (0.0075 -0.00848528 -0.00848528)
            (0.0075 0.0 0.0)
            (0.0075 0.0 -0.00070588)
            (0.0075 0.0 -0.00141176)
            (0.0075 0.0 -0.00211765)
            (0.0075 0.0 -0.00282353)
            (0.0075 0.0 -0.00352941)
            (0.0075 0.0 -0.00423529)
            (0.0075 0.0 -0.00494118)
            (0.0075 0.0 -0.00564706)
            (0.0075 0.0 -0.00635294)
            (0.0075 0.0 -0.00705882)
            (0.0075 0.0 -0.00776471)
            (0.0075 0.0 -0.00847059)
            (0.0075 0.0 -0.00917647)
            (0.0075 0.0 -0.00988235)
            (0.0075 0.0 -0.01058824)
            (0.0075 0.0 -0.01129412)
            (0.0075 0.0 -0.012)
            (0.0075 0.0 0.0)
            (0.0075 0.00049913 -0.00049913)
            (0.0075 0.00099827 -0.00099827)
            (0.0075 0.0014974 -0.0014974)
            (0.0075 0.00199654 -0.00199654)
            (0.0075 0.00249567 -0.00249567)
            (0.0075 0.00299481 -0.00299481)
            (0.0075 0.00349394 -0.00349394)
            (0.0075 0.00399307 -0.00399307)
            (0.0075 0.00449221 -0.00449221)
            (0.0075 0.00499134 -0.00499134)
            (0.0075 0.00549048 -0.00549048)
            (0.0075 0.00598961 -0.00598961)
            (0.0075 0.00648874 -0.00648874)
            (0.0075 0.00698788 -0.00698788)
            (0.0075 0.00748701 -0.00748701)
            (0.0075 0.00798615 -0.00798615)
            (0.0075 0.00848528 -0.00848528)
            (0.015 0.0 0.0)
            (0.015 0.00070588 0.0)
            (0.015 0.00141176 0.0)
            (0.015 0.00211765 0.0)
            (0.015 0.00282353 0.0)
            (0.015 0.00352941 0.0)
            (0.015 0.00423529 0.0)
            (0.015 0.00494118 0.0)
            (0.015 0.00564706 0.0)
            (0.015 0.00635294 0.0)
            (0.015 0.00705882 0.0)
            (0.015 0.00776471 0.0)
            (0.015 0.00847059 0.0)
            (0.015 0.00917647 0.0)
            (0.015 0.00988235 0.0)
            (0.015 0.01058824 0.0)
            (0.015 0.01129412 0.0)
            (0.015 0.012 0.0)
            (0.015 0.0 0.0)
            (0.015 0.00049913 0.00049913)
            (0.015 0.00099827 0.00099827)
            (0.015 0.0014974 0.0014974)
            (0.015 0.00199654 0.00199654)
            (0.015 0.00249567 0.00249567)
            (0.015 0.00299481 0.00299481)
            (0.015 0.00349394 0.00349394)
            (0.015 0.00399307 0.00399307)
            (0.015 0.00449221 0.00449221)
            (0.015 0.00499134 0.00499134)
            (0.015 0.00549048 0.00549048)
            (0.015 0.00598961 0.00598961)
            (0.015 0.00648874 0.00648874)
            (0.015 0.00698788 0.00698788)
            (0.015 0.00748701 0.00748701)
            (0.015 0.00798615 0.00798615)
            (0.015 0.00848528 0.00848528)
            (0.015 0.0 0.0)
            (0.015 0.0 0.00070588)
            (0.015 0.0 0.00141176)
            (0.015 0.0 0.00211765)
            (0.015 0.0 0.00282353)
            (0.015 0.0 0.00352941)
            (0.015 0.0 0.00423529)
            (0.015 0.0 0.00494118)
            (0.015 0.0 0.00564706)
            (0.015 0.0 0.00635294)
            (0.015 0.0 0.00705882)
            (0.015 0.0 0.00776471)
            (0.015 0.0 0.00847059)
            (0.015 0.0 0.00917647)
            (0.015 0.0 0.00988235)
            (0.015 0.0 0.01058824)
            (0.015 0.0 0.01129412)
            (0.015 0.0 0.012)
            (0.015 0.0 0.0)
            (0.015 -0.00049913 0.00049913)
            (0.015 -0.00099827 0.00099827)
            (0.015 -0.0014974 0.0014974)
            (0.015 -0.00199654 0.00199654)
            (0.015 -0.00249567 0.00249567)
            (0.015 -0.00299481 0.00299481)
            (0.015 -0.00349394 0.00349394)
            (0.015 -0.00399307 0.00399307)
            (0.015 -0.00449221 0.00449221)
            (0.015 -0.00499134 0.00499134)
            (0.015 -0.00549048 0.00549048)
            (0.015 -0.00598961 0.00598961)
            (0.015 -0.00648874 0.00648874)
            (0.015 -0.00698788 0.00698788)
            (0.015 -0.00748701 0.00748701)
            (0.015 -0.00798615 0.00798615)
            (0.015 -0.00848528 0.00848528)
            (0.015 0.0 0.0)
            (0.015 -0.00070588 0.0)
            (0.015 -0.00141176 0.0)
            (0.015 -0.00211765 0.0)
            (0.015 -0.00282353 0.0)
            (0.015 -0.00352941 0.0)
            (0.015 -0.00423529 0.0)
            (0.015 -0.00494118 0.0)
            (0.015 -0.00564706 0.0)
            (0.015 -0.00635294 0.0)
            (0.015 -0.00705882 0.0)
            (0.015 -0.00776471 0.0)
            (0.015 -0.00847059 0.0)
            (0.015 -0.00917647 0.0)
            (0.015 -0.00988235 0.0)
            (0.015 -0.01058824 0.0)
            (0.015 -0.01129412 0.0)
            (0.015 -0.012 0.0)
            (0.015 0.0 0.0)
            (0.015 -0.00049913 -0.00049913)
            (0.015 -0.00099827 -0.00099827)
            (0.015 -0.0014974 -0.0014974)
            (0.015 -0.00199654 -0.00199654)
            (0.015 -0.00249567 -0.00249567)
            (0.015 -0.00299481 -0.00299481)
            (0.015 -0.00349394 -0.00349394)
            (0.015 -0.00399307 -0.00399307)
            (0.015 -0.00449221 -0.00449221)
            (0.015 -0.00499134 -0.00499134)
            (0.015 -0.00549048 -0.00549048)
            (0.015 -0.00598961 -0.00598961)
            (0.015 -0.00648874 -0.00648874)
            (0.015 -0.00698788 -0.00698788)
            (0.015 -0.00748701 -0.00748701)
            (0.015 -0.00798615 -0.00798615)
            (0.015 -0.00848528 -0.00848528)
            (0.015 0.0 0.0)
            (0.015 0.0 -0.00070588)
            (0.015 0.0 -0.00141176)
            (0.015 0.0 -0.00211765)
            (0.015 0.0 -0.00282353)
            (0.015 0.0 -0.00352941)
            (0.015 0.0 -0.00423529)
            (0.015 0.0 -0.00494118)
            (0.015 0.0 -0.00564706)
            (0.015 0.0 -0.00635294)
            (0.015 0.0 -0.00705882)
            (0.015 0.0 -0.00776471)
            (0.015 0.0 -0.00847059)
            (0.015 0.0 -0.00917647)
            (0.015 0.0 -0.00988235)
            (0.015 0.0 -0.01058824)
            (0.015 0.0 -0.01129412)
            (0.015 0.0 -0.012)
            (0.015 0.0 0.0)
            (0.015 0.00049913 -0.00049913)
            (0.015 0.00099827 -0.00099827)
            (0.015 0.0014974 -0.0014974)
            (0.015 0.00199654 -0.00199654)
            (0.015 0.00249567 -0.00249567)
            (0.015 0.00299481 -0.00299481)
            (0.015 0.00349394 -0.00349394)
            (0.015 0.00399307 -0.00399307)
            (0.015 0.00449221 -0.00449221)
            (0.015 0.00499134 -0.00499134)
            (0.015 0.00549048 -0.00549048)
            (0.015 0.00598961 -0.00598961)
            (0.015 0.00648874 -0.00648874)
            (0.015 0.00698788 -0.00698788)
            (0.015 0.00748701 -0.00748701)
            (0.015 0.00798615 -0.00798615)
            (0.015 0.00848528 -0.00848528)
            (0.0225 0.0 0.0)
            (0.0225 0.00070588 0.0)
            (0.0225 0.00141176 0.0)
            (0.0225 0.00211765 0.0)
            (0.0225 0.00282353 0.0)
            (0.0225 0.00352941 0.0)
            (0.0225 0.00423529 0.0)
            (0.0225 0.00494118 0.0)
            (0.0225 0.00564706 0.0)
            (0.0225 0.00635294 0.0)
            (0.0225 0.00705882 0.0)
            (0.0225 0.00776471 0.0)
            (0.0225 0.00847059 0.0)
            (0.0225 0.00917647 0.0)
            (0.0225 0.00988235 0.0)
            (0.0225 0.01058824 0.0)
            (0.0225 0.01129412 0.0)
            (0.0225 0.012 0.0)
            (0.0225 0.0 0.0)
            (0.0225 0.00049913 0.00049913)
            (0.0225 0.00099827 0.00099827)
            (0.0225 0.0014974 0.0014974)
            (0.0225 0.00199654 0.00199654)
            (0.0225 0.00249567 0.00249567)
            (0.0225 0.00299481 0.00299481)
            (0.0225 0.00349394 0.00349394)
            (0.0225 0.00399307 0.00399307)
            (0.0225 0.00449221 0.00449221)
            (0.0225 0.00499134 0.00499134)
            (0.0225 0.00549048 0.00549048)
            (0.0225 0.00598961 0.00598961)
            (0.0225 0.00648874 0.00648874)
            (0.0225 0.00698788 0.00698788)
            (0.0225 0.00748701 0.00748701)
            (0.0225 0.00798615 0.00798615)
            (0.0225 0.00848528 0.00848528)
            (0.0225 0.0 0.0)
            (0.0225 0.0 0.00070588)
            (0.0225 0.0 0.00141176)
            (0.0225 0.0 0.00211765)
            (0.0225 0.0 0.00282353)
            (0.0225 0.0 0.00352941)
            (0.0225 0.0 0.00423529)
            (0.0225 0.0 0.00494118)
            (0.0225 0.0 0.00564706)
            (0.0225 0.0 0.00635294)
            (0.0225 0.0 0.00705882)
            (0.0225 0.0 0.00776471)
            (0.0225 0.0 0.00847059)
            (0.0225 0.0 0.00917647)
            (0.0225 0.0 0.00988235)
            (0.0225 0.0 0.01058824)
            (0.0225 0.0 0.01129412)
            (0.0225 0.0 0.012)
            (0.0225 0.0 0.0)
            (0.0225 -0.00049913 0.00049913)
            (0.0225 -0.00099827 0.00099827)
            (0.0225 -0.0014974 0.0014974)
            (0.0225 -0.00199654 0.00199654)
            (0.0225 -0.00249567 0.00249567)
            (0.0225 -0.00299481 0.00299481)
            (0.0225 -0.00349394 0.00349394)
            (0.0225 -0.00399307 0.00399307)
            (0.0225 -0.00449221 0.00449221)
            (0.0225 -0.00499134 0.00499134)
            (0.0225 -0.00549048 0.00549048)
            (0.0225 -0.00598961 0.00598961)
            (0.0225 -0.00648874 0.00648874)
            (0.0225 -0.00698788 0.00698788)
            (0.0225 -0.00748701 0.00748701)
            (0.0225 -0.00798615 0.00798615)
            (0.0225 -0.00848528 0.00848528)
            (0.0225 0.0 0.0)
            (0.0225 -0.00070588 0.0)
            (0.0225 -0.00141176 0.0)
            (0.0225 -0.00211765 0.0)
            (0.0225 -0.00282353 0.0)
            (0.0225 -0.00352941 0.0)
            (0.0225 -0.00423529 0.0)
            (0.0225 -0.00494118 0.0)
            (0.0225 -0.00564706 0.0)
            (0.0225 -0.00635294 0.0)
            (0.0225 -0.00705882 0.0)
            (0.0225 -0.00776471 0.0)
            (0.0225 -0.00847059 0.0)
            (0.0225 -0.00917647 0.0)
            (0.0225 -0.00988235 0.0)
            (0.0225 -0.01058824 0.0)
            (0.0225 -0.01129412 0.0)
            (0.0225 -0.012 0.0)
            (0.0225 0.0 0.0)
            (0.0225 -0.00049913 -0.00049913)
            (0.0225 -0.00099827 -0.00099827)
            (0.0225 -0.0014974 -0.0014974)
            (0.0225 -0.00199654 -0.00199654)
            (0.0225 -0.00249567 -0.00249567)
            (0.0225 -0.00299481 -0.00299481)
            (0.0225 -0.00349394 -0.00349394)
            (0.0225 -0.00399307 -0.00399307)
            (0.0225 -0.00449221 -0.00449221)
            (0.0225 -0.00499134 -0.00499134)
            (0.0225 -0.00549048 -0.00549048)
            (0.0225 -0.00598961 -0.00598961)
            (0.0225 -0.00648874 -0.00648874)
            (0.0225 -0.00698788 -0.00698788)
            (0.0225 -0.00748701 -0.00748701)
            (0.0225 -0.00798615 -0.00798615)
            (0.0225 -0.00848528 -0.00848528)
            (0.0225 0.0 0.0)
            (0.0225 0.0 -0.00070588)
            (0.0225 0.0 -0.00141176)
            (0.0225 0.0 -0.00211765)
            (0.0225 0.0 -0.00282353)
            (0.0225 0.0 -0.00352941)
            (0.0225 0.0 -0.00423529)
            (0.0225 0.0 -0.00494118)
            (0.0225 0.0 -0.00564706)
            (0.0225 0.0 -0.00635294)
            (0.0225 0.0 -0.00705882)
            (0.0225 0.0 -0.00776471)
            (0.0225 0.0 -0.00847059)
            (0.0225 0.0 -0.00917647)
            (0.0225 0.0 -0.00988235)
            (0.0225 0.0 -0.01058824)
            (0.0225 0.0 -0.01129412)
            (0.0225 0.0 -0.012)
            (0.0225 0.0 0.0)
            (0.0225 0.00049913 -0.00049913)
            (0.0225 0.00099827 -0.00099827)
            (0.0225 0.0014974 -0.0014974)
            (0.0225 0.00199654 -0.00199654)
            (0.0225 0.00249567 -0.00249567)
            (0.0225 0.00299481 -0.00299481)
            (0.0225 0.00349394 -0.00349394)
            (0.0225 0.00399307 -0.00399307)
            (0.0225 0.00449221 -0.00449221)
            (0.0225 0.00499134 -0.00499134)
            (0.0225 0.00549048 -0.00549048)
            (0.0225 0.00598961 -0.00598961)
            (0.0225 0.00648874 -0.00648874)
            (0.0225 0.00698788 -0.00698788)
            (0.0225 0.00748701 -0.00748701)
            (0.0225 0.00798615 -0.00798615)
            (0.0225 0.00848528 -0.00848528)
            (0.03 0.0 0.0)
            (0.03 0.00070588 0.0)
            (0.03 0.00141176 0.0)
            (0.03 0.00211765 0.0)
            (0.03 0.00282353 0.0)
            (0.03 0.00352941 0.0)
            (0.03 0.00423529 0.0)
            (0.03 0.00494118 0.0)
            (0.03 0.00564706 0.0)
            (0.03 0.00635294 0.0)
            (0.03 0.00705882 0.0)
            (0.03 0.00776471 0.0)
            (0.03 0.00847059 0.0)
            (0.03 0.00917647 0.0)
            (0.03 0.00988235 0.0)
            (0.03 0.01058824 0.0)
            (0.03 0.01129412 0.0)
            (0.03 0.012 0.0)
            (0.03 0.0 0.0)
            (0.03 0.00049913 0.00049913)
            (0.03 0.00099827 0.00099827)
            (0.03 0.0014974 0.0014974)
            (0.03 0.00199654 0.00199654)
            (0.03 0.00249567 0.00249567)
            (0.03 0.00299481 0.00299481)
            (0.03 0.00349394 0.00349394)
            (0.03 0.00399307 0.00399307)
            (0.03 0.00449221 0.00449221)
            (0.03 0.00499134 0.00499134)
            (0.03 0.00549048 0.00549048)
            (0.03 0.00598961 0.00598961)
            (0.03 0.00648874 0.00648874)
            (0.03 0.00698788 0.00698788)
            (0.03 0.00748701 0.00748701)
            (0.03 0.00798615 0.00798615)
            (0.03 0.00848528 0.00848528)
            (0.03 0.0 0.0)
            (0.03 0.0 0.00070588)
            (0.03 0.0 0.00141176)
            (0.03 0.0 0.00211765)
            (0.03 0.0 0.00282353)
            (0.03 0.0 0.00352941)
            (0.03 0.0 0.00423529)
            (0.03 0.0 0.00494118)
            (0.03 0.0 0.00564706)
            (0.03 0.0 0.00635294)
            (0.03 0.0 0.00705882)
            (0.03 0.0 0.00776471)
            (0.03 0.0 0.00847059)
            (0.03 0.0 0.00917647)
            (0.03 0.0 0.00988235)
            (0.03 0.0 0.01058824)
            (0.03 0.0 0.01129412)
            (0.03 0.0 0.012)
            (0.03 0.0 0.0)
            (0.03 -0.00049913 0.00049913)
            (0.03 -0.00099827 0.00099827)
            (0.03 -0.0014974 0.0014974)
            (0.03 -0.00199654 0.00199654)
            (0.03 -0.00249567 0.00249567)
            (0.03 -0.00299481 0.00299481)
            (0.03 -0.00349394 0.00349394)
            (0.03 -0.00399307 0.00399307)
            (0.03 -0.00449221 0.00449221)
            (0.03 -0.00499134 0.00499134)
            (0.03 -0.00549048 0.00549048)
            (0.03 -0.00598961 0.00598961)
            (0.03 -0.00648874 0.00648874)
            (0.03 -0.00698788 0.00698788)
            (0.03 -0.00748701 0.00748701)
            (0.03 -0.00798615 0.00798615)
            (0.03 -0.00848528 0.00848528)
            (0.03 0.0 0.0)
            (0.03 -0.00070588 0.0)
            (0.03 -0.00141176 0.0)
            (0.03 -0.00211765 0.0)
            (0.03 -0.00282353 0.0)
            (0.03 -0.00352941 0.0)
            (0.03 -0.00423529 0.0)
            (0.03 -0.00494118 0.0)
            (0.03 -0.00564706 0.0)
            (0.03 -0.00635294 0.0)
            (0.03 -0.00705882 0.0)
            (0.03 -0.00776471 0.0)
            (0.03 -0.00847059 0.0)
            (0.03 -0.00917647 0.0)
            (0.03 -0.00988235 0.0)
            (0.03 -0.01058824 0.0)
            (0.03 -0.01129412 0.0)
            (0.03 -0.012 0.0)
            (0.03 0.0 0.0)
            (0.03 -0.00049913 -0.00049913)
            (0.03 -0.00099827 -0.00099827)
            (0.03 -0.0014974 -0.0014974)
            (0.03 -0.00199654 -0.00199654)
            (0.03 -0.00249567 -0.00249567)
            (0.03 -0.00299481 -0.00299481)
            (0.03 -0.00349394 -0.00349394)
            (0.03 -0.00399307 -0.00399307)
            (0.03 -0.00449221 -0.00449221)
            (0.03 -0.00499134 -0.00499134)
            (0.03 -0.00549048 -0.00549048)
            (0.03 -0.00598961 -0.00598961)
            (0.03 -0.00648874 -0.00648874)
            (0.03 -0.00698788 -0.00698788)
            (0.03 -0.00748701 -0.00748701)
            (0.03 -0.00798615 -0.00798615)
            (0.03 -0.00848528 -0.00848528)
            (0.03 0.0 0.0)
            (0.03 0.0 -0.00070588)
            (0.03 0.0 -0.00141176)
            (0.03 0.0 -0.00211765)
            (0.03 0.0 -0.00282353)
            (0.03 0.0 -0.00352941)
            (0.03 0.0 -0.00423529)
            (0.03 0.0 -0.00494118)
            (0.03 0.0 -0.00564706)
            (0.03 0.0 -0.00635294)
            (0.03 0.0 -0.00705882)
            (0.03 0.0 -0.00776471)
            (0.03 0.0 -0.00847059)
            (0.03 0.0 -0.00917647)
            (0.03 0.0 -0.00988235)
            (0.03 0.0 -0.01058824)
            (0.03 0.0 -0.01129412)
            (0.03 0.0 -0.012)
            (0.03 0.0 0.0)
            (0.03 0.00049913 -0.00049913)
            (0.03 0.00099827 -0.00099827)
            (0.03 0.0014974 -0.0014974)
            (0.03 0.00199654 -0.00199654)
            (0.03 0.00249567 -0.00249567)
            (0.03 0.00299481 -0.00299481)
            (0.03 0.00349394 -0.00349394)
            (0.03 0.00399307 -0.00399307)
            (0.03 0.00449221 -0.00449221)
            (0.03 0.00499134 -0.00499134)
            (0.03 0.00549048 -0.00549048)
            (0.03 0.00598961 -0.00598961)
            (0.03 0.00648874 -0.00648874)
            (0.03 0.00698788 -0.00698788)
            (0.03 0.00748701 -0.00748701)
            (0.03 0.00798615 -0.00798615)
            (0.03 0.00848528 -0.00848528)
            (0.0375 0.0 0.0)
            (0.0375 0.00070588 0.0)
            (0.0375 0.00141176 0.0)
            (0.0375 0.00211765 0.0)
            (0.0375 0.00282353 0.0)
            (0.0375 0.00352941 0.0)
            (0.0375 0.00423529 0.0)
            (0.0375 0.00494118 0.0)
            (0.0375 0.00564706 0.0)
            (0.0375 0.00635294 0.0)
            (0.0375 0.00705882 0.0)
            (0.0375 0.00776471 0.0)
            (0.0375 0.00847059 0.0)
            (0.0375 0.00917647 0.0)
            (0.0375 0.00988235 0.0)
            (0.0375 0.01058824 0.0)
            (0.0375 0.01129412 0.0)
            (0.0375 0.012 0.0)
            (0.0375 0.0 0.0)
            (0.0375 0.00049913 0.00049913)
            (0.0375 0.00099827 0.00099827)
            (0.0375 0.0014974 0.0014974)
            (0.0375 0.00199654 0.00199654)
            (0.0375 0.00249567 0.00249567)
            (0.0375 0.00299481 0.00299481)
            (0.0375 0.00349394 0.00349394)
            (0.0375 0.00399307 0.00399307)
            (0.0375 0.00449221 0.00449221)
            (0.0375 0.00499134 0.00499134)
            (0.0375 0.00549048 0.00549048)
            (0.0375 0.00598961 0.00598961)
            (0.0375 0.00648874 0.00648874)
            (0.0375 0.00698788 0.00698788)
            (0.0375 0.00748701 0.00748701)
            (0.0375 0.00798615 0.00798615)
            (0.0375 0.00848528 0.00848528)
            (0.0375 0.0 0.0)
            (0.0375 0.0 0.00070588)
            (0.0375 0.0 0.00141176)
            (0.0375 0.0 0.00211765)
            (0.0375 0.0 0.00282353)
            (0.0375 0.0 0.00352941)
            (0.0375 0.0 0.00423529)
            (0.0375 0.0 0.00494118)
            (0.0375 0.0 0.00564706)
            (0.0375 0.0 0.00635294)
            (0.0375 0.0 0.00705882)
            (0.0375 0.0 0.00776471)
            (0.0375 0.0 0.00847059)
            (0.0375 0.0 0.00917647)
            (0.0375 0.0 0.00988235)
            (0.0375 0.0 0.01058824)
            (0.0375 0.0 0.01129412)
            (0.0375 0.0 0.012)
            (0.0375 0.0 0.0)
            (0.0375 -0.00049913 0.00049913)